*Heading
** Job name: cme Model name: Model-1
** Generated by: Abaqus/CAE 2021
*Preprint, echo=NO, model=NO, history=NO, contact=NO
**
** PARTS
**
*Part, name=Part-1
*Node
      1,   4.57999992,  -7.07999992,          90.
      2,   4.57999992,   6.19500017,          90.
      3,  -8.69499969,   6.19500017,          90.
      4,  -8.69499969,  -7.07999992,          90.
      5,   4.57999992,  -7.07999992,          20.
      6,   4.57999992,   6.19500017,          20.
      7,  -8.69499969,   6.19500017,          20.
      8,  -8.69499969,  -7.07999992,          20.
      9,          25.,         -20.,          20.
     10,          25.,          20.,          20.
     11,         -30.,          20.,          20.
     12,         -30.,         -20.,          20.
     13,         -30.,          20.,           0.
     14,          25.,          20.,           0.
     15,          25.,         -20.,           0.
     16,         -30.,         -20.,           0.
     17,  -8.69499969,  -7.07999992,          80.
     18,  -8.69499969,  -7.07999992,          70.
     19,  -8.69499969,  -7.07999992,          60.
     20,  -8.69499969,  -7.07999992,          50.
** ... 380 like lines cut
*Element, type=C3D20R
1,  28,  35,  34,  17,   1,   2,   3,   4, 128, 127, 126, 125, 129, 130, 131,
   132, 134, 133, 135, 136
2,  27,  36,  33,  18,  28,  35,  34,  17, 140, 139, 138, 137, 128, 127, 126,
   125, 142, 141, 143, 144
3,  26,  37,  32,  19,  27,  36,  33,  18, 148, 147, 146, 145, 140, 139, 138,
   137, 150, 149, 151, 152
4,  25,  38,  31,  20,  26,  37,  32,  19, 156, 155, 154, 153, 148, 147, 146,
   145, 158, 157, 159, 160
5,  24,  39,  30,  21,  25,  38,  31,  20, 164, 163, 162, 161, 156, 155, 154,
   153, 166, 165, 167, 168
6,  23,  40,  29,  22,  24,  39,  30,  21, 172, 171, 170, 169, 164, 163, 162,
   161, 174, 173, 175, 176
7,   5,   6,   7,   8,  23,  40,  29,  22, 180, 179, 178, 177, 172, 171, 170,
   169, 182, 181, 183, 184
 8,   5,   8,   7,   6, 113, 116, 115, 114, 177, 178, 179, 180, 185, 186, 187,
    188, 190, 189, 191, 192
 9,   5,  78,  55,  54, 113, 118, 101, 102, 196, 195, 194, 193, 197, 198, 199,
    200, 190, 201, 202, 203
10,  53,   8,   5,  54, 103, 116, 113, 102, 205, 177, 193, 204, 206, 185, 200,
    207, 208, 189, 190, 203
** ... 78 like lines cut
*Nset, nset=_PickedSet3, internal, generate
   1,  400,    1
*Elset, elset=_PickedSet3, internal, generate
  1,  49,   1
** Section: Section-1
*Solid Section, elset=_PickedSet3, material=Material-1
,
*End Part
**  
**
** ASSEMBLY
**
*Assembly, name=Assembly
**  
*Instance, name=Part-1-1, part=Part-1
*End Instance
**  
*Nset, nset=force, instance=Part-1-1, generate
 1,  4,  1
*Nset, nset=guding, instance=Part-1-1
  13,  14,  15,  16,  61,  62,  63,  64,  65,  66,  67,  68,  69,  70,  71,  72
  73,  74,  75,  76,  85,  86,  87,  88,  89,  90,  91,  92,  93,  94,  95,  96
 317, 318, 319, 320, 325, 326, 327, 328, 332, 333, 335, 336, 337, 340, 341, 343
 344, 345, 348, 349, 350, 351, 356, 357, 358, 361, 362, 363, 364, 368, 369, 371
 372, 373, 376, 377, 378, 380, 381, 382, 383, 386, 387, 388, 389, 390, 391, 396
 397, 398, 399, 400
*Elset, elset=guding, instance=Part-1-1, generate
 29,  49,   1
*Elset, elset=_Surf-1_S2, internal, instance=Part-1-1
 1,
*Surface, type=ELEMENT, name=Surf-1
_Surf-1_S2, S2
*End Assembly
** 
** MATERIALS
** 
*Material, name=Material-1
*Elastic
200000., 0.3
** 
** BOUNDARY CONDITIONS
** 
** Name: BC-1 Type: 对称/反对称/完全固定
*Boundary
guding, ENCASTRE
** ----------------------------------------------------------------
** 
** STEP: Step-1
** 
*Step, name=Step-1, nlgeom=NO
*Static
1., 1., 1e-05, 1.
** 
** LOADS
** 
** Name: Load-1   Type: Concentrated force
*Cload
force, 3, 50.
** 
** OUTPUT REQUESTS
** 
*Restart, write, frequency=0
** 
** FIELD OUTPUT: F-Output-1
** 
*Output, field, variable=PRESELECT
** 
** HISTORY OUTPUT: H-Output-1
** 
*Output, history, variable=PRESELECT
*End Step
